/*--------------------------------*- C++ -*----------------------------------*\
| =========                 |                                                 |
| \\      /  F ield         | OpenFOAM: The Open Source CFD Toolbox           |
|  \\    /   O peration     | Version:  v2012                                 |
|   \\  /    A nd           | Website:  www.openfoam.com                      |
|    \\/     M anipulation  |                                                 |
\*---------------------------------------------------------------------------*/
FoamFile
{
    version     2.0;
    format      ascii;
    class       volVectorField;
    object      U;
}
// * * * * * * * * * * * * * * * * * * * * * * * * * * * * * * * * * * * * * //

dimensions      [0 1 -1 0 0 0 0];

internalField   uniform (0 0 0);

boundaryField
{
    #includeEtc "caseDicts/setConstraintTypes"
    /*inlet
    {
        #include    "$FOAM_CASE/0/include/offshorewindInlet"
    }

    outlet
    {
        type        zeroGradient; 
    }*/
    
    
    inlet
    {     
        type            zeroGradient;
        refValue        uniform ( 0 0 0 );
        refGradient     uniform ( 0 0 0 );
        valueFraction   uniform 1;
        value           uniform (0 0 0);
    }



    outlet
    {
        type            zeroGradient;
    }
    bottom
    {
        type            slip;
    }
    atmosphere
    {
        type            pressureInletOutletVelocity;
        value           uniform (0 0 0);
    }
    floatingObject
    {
        type            fixedValue;
        value           uniform (0 0 0);
    }
}

// ************************************************************************* //
