/*--------------------------------*- C++ -*----------------------------------*\
| =========                 |                                                 |
| \\      /  F ield         | OpenFOAM: The Open Source CFD Toolbox           |
|  \\    /   O peration     | Version:  v2012                                 |
|   \\  /    A nd           | Website:  www.openfoam.com                      |
|    \\/     M anipulation  |                                                 |
\*---------------------------------------------------------------------------*/
FoamFile
{
    version	2.0;
    format	ascii;
    class	dictionary;
    object	waveProperties;
}
// * * * * * * * * * * * * * * * * * * * * * * * * * * * * * * * * * * * * * //

seaLevel            30;

seaLevelAsReference true;

relaxationNames     ( inlet outlet );

initializationName  inlet;

inletCoeffs
{
    waveType            irregular;
    spectrum            newWaveJONSWAP;
    N                   50;
    Tsoft               0;
    etaMax              12;
    Tp                  9;
    gamma               1;
    depth               30;
    direction           ( 1 0 0 );
    amplitude           nonuniform List<scalar>
    50
    (
        2.0847e-33
        1.13456e-18
        3.29202e-11
        3.85943e-07
        8.56901e-05
        0.00226905
        0.0184576
        0.074029
        0.186507
        0.341694
        0.502507
        0.634934
        0.722142
        0.763271
        0.766357
        0.742164
        0.700685
        0.649808
        0.595161
        0.54046
        0.487978
        0.438977
        0.394048
        0.353352
        0.316791
        0.284124
        0.255039
        0.229197
        0.20626
        0.185907
        0.167842
        0.151795
        0.137526
        0.124822
        0.113495
        0.10338
        0.094332
        0.0862255
        0.0789496
        0.0724079
        0.066516
        0.0612002
        0.0563959
        0.0520465
        0.0481025
        0.0445201
        0.0412611
        0.0382915
        0.0355816
        0.033105
    );
    frequency           nonuniform List<scalar>
    50
    (
        0.0363333
        0.0423333
        0.0483333
        0.0543333
        0.0603333
        0.0663333
        0.0723333
        0.0783333
        0.0843333
        0.0903333
        0.0963333
        0.102333
        0.108333
        0.114333
        0.120333
        0.126333
        0.132333
        0.138333
        0.144333
        0.150333
        0.156333
        0.162333
        0.168333
        0.174333
        0.180333
        0.186333
        0.192333
        0.198333
        0.204333
        0.210333
        0.216333
        0.222333
        0.228333
        0.234333
        0.240333
        0.246333
        0.252333
        0.258333
        0.264333
        0.270333
        0.276333
        0.282333
        0.288333
        0.294333
        0.300333
        0.306333
        0.312333
        0.318333
        0.324333
        0.330333
    );
    phaselag            nonuniform List<scalar>
    50
    (
        -0.684867
        -0.797965
        -0.911062
        -1.02416
        -1.13726
        -1.25035
        -1.36345
        -1.47655
        -1.58965
        -1.70274
        -1.81584
        -1.92894
        -2.04204
        -2.15513
        -2.26823
        -2.38133
        -2.49442
        -2.60752
        -2.72062
        -2.83372
        -2.94681
        -3.05991
        -3.17301
        -3.28611
        -3.3992
        -3.5123
        -3.6254
        -3.7385
        -3.85159
        -3.96469
        -4.07779
        -4.19088
        -4.30398
        -4.41708
        -4.53018
        -4.64327
        -4.75637
        -4.86947
        -4.98257
        -5.09566
        -5.20876
        -5.32186
        -5.43496
        -5.54805
        -5.66115
        -5.77425
        -5.88734
        -6.00044
        -6.11354
        -6.22664
    );
    waveNumber          nonuniform List<vector>
    50
    (
        (0.0136713 0 0)
        (0.0160866 0 0)
        (0.0185788 0 0)
        (0.0211621 0 0)
        (0.0238522 0 0)
        (0.0266664 0 0)
        (0.029624 0 0)
        (0.032746 0 0)
        (0.0360554 0 0)
        (0.039577 0 0)
        (0.0433372 0 0)
        (0.0473631 0 0)
        (0.0516816 0 0)
        (0.0563181 0 0)
        (0.0612951 0 0)
        (0.0666303 0 0)
        (0.0723355 0 0)
        (0.0784162 0 0)
        (0.0848713 0 0)
        (0.0916949 0 0)
        (0.0988774 0 0)
        (0.106407 0 0)
        (0.114273 0 0)
        (0.122465 0 0)
        (0.130972 0 0)
        (0.139788 0 0)
        (0.148907 0 0)
        (0.158324 0 0)
        (0.168037 0 0)
        (0.178044 0 0)
        (0.188343 0 0)
        (0.198932 0 0)
        (0.209813 0 0)
        (0.220984 0 0)
        (0.232445 0 0)
        (0.244195 0 0)
        (0.256236 0 0)
        (0.268566 0 0)
        (0.281187 0 0)
        (0.294097 0 0)
        (0.307296 0 0)
        (0.320786 0 0)
        (0.334565 0 0)
        (0.348634 0 0)
        (0.362993 0 0)
        (0.377641 0 0)
        (0.392579 0 0)
        (0.407807 0 0)
        (0.423325 0 0)
        (0.439132 0 0)
    );

    frequencyAxis
    {
        discretisation      equidistantFrequencyAxis;
    }

    relaxationZone
    {
        relaxationScheme    Spatial;
        relaxationShape     Rectangular;
        beachType           Empty;
        relaxType           INLET;
        startX              ( -60 0 0 );
        endX                ( -10 0 150 );
        orientation         ( 1 0 0 );
    }
}

outletCoeffs
{
    waveType            irregular;
    spectrum            newWaveJONSWAP;
    N                   50;
    Tsoft               0;
    etaMax              12;
    Tp                  9;
    gamma               1;
    depth               30;
    direction           ( 1 0 0 );
    amplitude           nonuniform List<scalar>
    50
    (
        2.0847e-33
        1.13456e-18
        3.29202e-11
        3.85943e-07
        8.56901e-05
        0.00226905
        0.0184576
        0.074029
        0.186507
        0.341694
        0.502507
        0.634934
        0.722142
        0.763271
        0.766357
        0.742164
        0.700685
        0.649808
        0.595161
        0.54046
        0.487978
        0.438977
        0.394048
        0.353352
        0.316791
        0.284124
        0.255039
        0.229197
        0.20626
        0.185907
        0.167842
        0.151795
        0.137526
        0.124822
        0.113495
        0.10338
        0.094332
        0.0862255
        0.0789496
        0.0724079
        0.066516
        0.0612002
        0.0563959
        0.0520465
        0.0481025
        0.0445201
        0.0412611
        0.0382915
        0.0355816
        0.033105
    );
    frequency           nonuniform List<scalar>
    50
    (
        0.0363333
        0.0423333
        0.0483333
        0.0543333
        0.0603333
        0.0663333
        0.0723333
        0.0783333
        0.0843333
        0.0903333
        0.0963333
        0.102333
        0.108333
        0.114333
        0.120333
        0.126333
        0.132333
        0.138333
        0.144333
        0.150333
        0.156333
        0.162333
        0.168333
        0.174333
        0.180333
        0.186333
        0.192333
        0.198333
        0.204333
        0.210333
        0.216333
        0.222333
        0.228333
        0.234333
        0.240333
        0.246333
        0.252333
        0.258333
        0.264333
        0.270333
        0.276333
        0.282333
        0.288333
        0.294333
        0.300333
        0.306333
        0.312333
        0.318333
        0.324333
        0.330333
    );
    phaselag            nonuniform List<scalar>
    50
    (
        -6.84867
        -7.97965
        -9.11062
        -10.2416
        -11.3726
        -12.5035
        -13.6345
        -14.7655
        -15.8965
        -17.0274
        -18.1584
        -19.2894
        -20.4204
        -21.5513
        -22.6823
        -23.8133
        -24.9442
        -26.0752
        -27.2062
        -28.3372
        -29.4681
        -30.5991
        -31.7301
        -32.8611
        -33.992
        -35.123
        -36.254
        -37.385
        -38.5159
        -39.6469
        -40.7779
        -41.9088
        -43.0398
        -44.1708
        -45.3018
        -46.4327
        -47.5637
        -48.6947
        -49.8257
        -50.9566
        -52.0876
        -53.2186
        -54.3496
        -55.4805
        -56.6115
        -57.7425
        -58.8734
        -60.0044
        -61.1354
        -62.2664
    );
    waveNumber          nonuniform List<vector>
    50
    (
        (0.0136713 0 0)
        (0.0160866 0 0)
        (0.0185788 0 0)
        (0.0211621 0 0)
        (0.0238522 0 0)
        (0.0266664 0 0)
        (0.029624 0 0)
        (0.032746 0 0)
        (0.0360554 0 0)
        (0.039577 0 0)
        (0.0433372 0 0)
        (0.0473631 0 0)
        (0.0516816 0 0)
        (0.0563181 0 0)
        (0.0612951 0 0)
        (0.0666303 0 0)
        (0.0723355 0 0)
        (0.0784162 0 0)
        (0.0848713 0 0)
        (0.0916949 0 0)
        (0.0988774 0 0)
        (0.106407 0 0)
        (0.114273 0 0)
        (0.122465 0 0)
        (0.130972 0 0)
        (0.139788 0 0)
        (0.148907 0 0)
        (0.158324 0 0)
        (0.168037 0 0)
        (0.178044 0 0)
        (0.188343 0 0)
        (0.198932 0 0)
        (0.209813 0 0)
        (0.220984 0 0)
        (0.232445 0 0)
        (0.244195 0 0)
        (0.256236 0 0)
        (0.268566 0 0)
        (0.281187 0 0)
        (0.294097 0 0)
        (0.307296 0 0)
        (0.320786 0 0)
        (0.334565 0 0)
        (0.348634 0 0)
        (0.362993 0 0)
        (0.377641 0 0)
        (0.392579 0 0)
        (0.407807 0 0)
        (0.423325 0 0)
        (0.439132 0 0)
    );

    frequencyAxis
    {
        discretisation      equidistantFrequencyAxis;
    }

    relaxationZone
    {
        relaxationScheme    Spatial;
        relaxationShape     Rectangular;
        beachType           Empty;
        relaxType           OUTLET;
        startX              ( 40 0 0 );
        endX                ( 80 0 150 );
        orientation         ( 1 0 0 );
    }
}



// ************************************************************************* //
