/*--------------------------------*- C++ -*----------------------------------*\
| =========                 |                                                 |
| \\      /  F ield         | OpenFOAM: The Open Source CFD Toolbox           |
|  \\    /   O peration     | Version:  v2012                                 |
|   \\  /    A nd           | Website:  www.openfoam.com                      |
|    \\/     M anipulation  |                                                 |
\*---------------------------------------------------------------------------*/
FoamFile
{
    version     2.0;
    format      ascii;
    class       featureEdgeMesh;
    location    "constant/triSurface";
    object      monopile.eMesh;
}
// * * * * * * * * * * * * * * * * * * * * * * * * * * * * * * * * * * * * * //


// points:

58
(
(5 -1.22465e-15 0)
(4.8831 1.07485 0)
(4.53788 2.09945 0)
(4.8831 1.07485 60)
(5 -1.22465e-15 60)
(4.53788 2.09945 60)
(3.98046 3.02587 0)
(3.98046 3.02587 60)
(3.23693 3.81081 0)
(2.34204 4.41756 0)
(3.23693 3.81081 60)
(2.34204 4.41756 60)
(1.33764 4.81775 0)
(1.33764 4.81775 60)
(0.270694 4.99267 0)
(0.270694 4.99267 60)
(-0.80891 4.93413 0)
(-0.80891 4.93413 60)
(-1.85069 4.64488 0)
(-1.85069 4.64488 60)
(-2.80593 4.13844 60)
(-2.80593 4.13844 0)
(-3.62998 3.4385 60)
(-3.62998 3.4385 0)
(-4.28429 2.57777 60)
(-4.28429 2.57777 0)
(-4.73827 1.59651 60)
(-4.73827 1.59651 0)
(-4.97069 0.540595 0)
(-4.97069 0.540595 60)
(-4.97069 -0.540595 60)
(-4.97069 -0.540595 0)
(-4.73827 -1.59651 60)
(-4.73827 -1.59651 0)
(-4.28429 -2.57777 0)
(-4.28429 -2.57777 60)
(-3.62998 -3.4385 60)
(-3.62998 -3.4385 0)
(-2.80593 -4.13844 60)
(-2.80593 -4.13844 0)
(-1.85069 -4.64488 60)
(-1.85069 -4.64488 0)
(-0.80891 -4.93413 0)
(-0.80891 -4.93413 60)
(0.270694 -4.99267 0)
(0.270694 -4.99267 60)
(1.33764 -4.81775 0)
(1.33764 -4.81775 60)
(2.34204 -4.41756 0)
(3.23693 -3.81081 0)
(2.34204 -4.41756 60)
(3.23693 -3.81081 60)
(3.98046 -3.02587 0)
(3.98046 -3.02587 60)
(4.53788 -2.09945 0)
(4.53788 -2.09945 60)
(4.8831 -1.07485 0)
(4.8831 -1.07485 60)
)


// edges:

58
(
(0 1)
(1 2)
(3 4)
(5 3)
(2 6)
(7 5)
(6 8)
(8 9)
(10 7)
(11 10)
(9 12)
(13 11)
(12 14)
(15 13)
(14 16)
(17 15)
(16 18)
(19 17)
(20 19)
(18 21)
(22 20)
(21 23)
(24 22)
(23 25)
(26 24)
(25 27)
(27 28)
(29 26)
(30 29)
(28 31)
(32 30)
(31 33)
(33 34)
(35 32)
(36 35)
(34 37)
(38 36)
(37 39)
(40 38)
(39 41)
(41 42)
(43 40)
(42 44)
(45 43)
(44 46)
(47 45)
(46 48)
(48 49)
(50 47)
(51 50)
(49 52)
(53 51)
(52 54)
(55 53)
(54 56)
(57 55)
(56 0)
(4 57)
)

// * * * * * * * * * * * * * * * * * * * * * * * * * * * * * * * * * * * * * //


// ************************************************************************* //
